/*--------------------------------*- C++ -*----------------------------------*\
  =========                 |
  \\      /  F ield         | OpenFOAM: The Open Source CFD Toolbox
   \\    /   O peration     | Website:  https://openfoam.org
    \\  /    A nd           | Version:  7
     \\/     M anipulation  |
\*---------------------------------------------------------------------------*/
FoamFile
{
    version     2.0;
    format      ascii;
    class       polyBoundaryMesh;
    location    "constant/polyMesh";
    object      boundary;
}
// * * * * * * * * * * * * * * * * * * * * * * * * * * * * * * * * * * * * * //

12
(
    bottomWall
    {
        type            wall;
        inGroups        List<word> 1(wall);
        nFaces          0;
        startFace       7768;
    }
    topWall
    {
        type            wall;
        inGroups        List<word> 1(wall);
        nFaces          0;
        startFace       7768;
    }
    sides1_half0
    {
        type            cyclic;
        inGroups        List<word> 1(cyclic);
        nFaces          0;
        startFace       7768;
        matchTolerance  0.0001;
        transform       unknown;
        neighbourPatch  sides1_half1;
    }
    sides1_half1
    {
        type            cyclic;
        inGroups        List<word> 1(cyclic);
        nFaces          0;
        startFace       7768;
        matchTolerance  0.0001;
        transform       unknown;
        neighbourPatch  sides1_half0;
    }
    sides2_half0
    {
        type            cyclic;
        inGroups        List<word> 1(cyclic);
        nFaces          3963;
        startFace       7768;
        matchTolerance  0.0001;
        transform       unknown;
        neighbourPatch  sides2_half1;
    }
    sides2_half1
    {
        type            cyclic;
        inGroups        List<word> 1(cyclic);
        nFaces          3963;
        startFace       11731;
        matchTolerance  0.0001;
        transform       unknown;
        neighbourPatch  sides2_half0;
    }
    inout1_half0
    {
        type            cyclic;
        inGroups        List<word> 1(cyclic);
        nFaces          0;
        startFace       15694;
        matchTolerance  0.0001;
        transform       unknown;
        neighbourPatch  inout1_half1;
    }
    inout1_half1
    {
        type            cyclic;
        inGroups        List<word> 1(cyclic);
        nFaces          0;
        startFace       15694;
        matchTolerance  0.0001;
        transform       unknown;
        neighbourPatch  inout1_half0;
    }
    inout2_half0
    {
        type            cyclic;
        inGroups        List<word> 1(cyclic);
        nFaces          35;
        startFace       15694;
        matchTolerance  0.0001;
        transform       unknown;
        neighbourPatch  inout2_half1;
    }
    inout2_half1
    {
        type            cyclic;
        inGroups        List<word> 1(cyclic);
        nFaces          35;
        startFace       15729;
        matchTolerance  0.0001;
        transform       unknown;
        neighbourPatch  inout2_half0;
    }
    procBoundary1to0
    {
        type            processor;
        inGroups        List<word> 1(processor);
        nFaces          122;
        startFace       15764;
        matchTolerance  0.0001;
        transform       unknown;
        myProcNo        1;
        neighbProcNo    0;
    }
    procBoundary1to2
    {
        type            processor;
        inGroups        List<word> 1(processor);
        nFaces          124;
        startFace       15886;
        matchTolerance  0.0001;
        transform       unknown;
        myProcNo        1;
        neighbProcNo    2;
    }
)

// ************************************************************************* //
